feeder_configuration.glm
#set profiler=1
#set threadcount=1;
#set randomseed=1;
#set relax_naming_rules=1;
#define stylesheet=http://gridlab-d.svn.sourceforge.net/viewvc/gridlab-d/trunk/core/gridlabd-2_0


//Clock that defines the simulation time
clock {
	timestamp '2021-01-06 00:00:00';
	stoptime '2021-01-12 23:45:00';
	// Timezone defaults to UTC when not specified
	//timezone PST+8PDT;
}
#set double_format="%.4le"
module tape;

module powerflow{
	solver_method FBS;
	default_maximum_voltage_error 1e-9;
	line_limits TRUE;
};

module climate;
module residential {
implicit_enduses NONE;
ANSI_voltage_check TRUE;
};

#include "./triploads.glm"


class player {
    double value;
}

object triplex_line_conductor {
	name tp_line_conductor;
	resistance 0.97;
	geometric_mean_radius 0.0111;
};

// Triplex Line configuration
object triplex_line_configuration {
	name triplex_line_configuration_1;
	conductor_1 tp_line_conductor;
	conductor_2 tp_line_conductor;
	conductor_N tp_line_conductor;
	insulation_thickness 0.08;
	diameter 0.368;
}

// Phase Conductor for 601: 556,500 26/7 ACSR
object overhead_line_conductor:6010 {
	geometric_mean_radius 0.031300;
	resistance 0.185900;
}

// Phase Conductor for 602: 4/0 6/1 ACSR
object overhead_line_conductor:6020 {
	geometric_mean_radius 0.00814;
	resistance 0.592000;
}

// Phase Conductor for 603, 604, 605: 1/0 ACSR
object overhead_line_conductor:6030 {
	geometric_mean_radius 0.004460;
	resistance 1.120000;
}

// Phase Conductor for 606: 250,000 AA,CN
object underground_line_conductor:6060 {
	outer_diameter 1.290000;
	conductor_gmr 0.017100;
	conductor_diameter 0.567000;
	conductor_resistance 0.410000;
	neutral_gmr 0.0020800;
	neutral_resistance 14.87200;
	neutral_diameter 0.0640837;
	neutral_strands 13.000000;
	shield_gmr 0.000000;
	shield_resistance 0.000000;
}

// Phase Conductor for 607: 1/0 AA,TS N: 1/0 Cu
object underground_line_conductor:6070 {
	outer_diameter 1.060000;
	conductor_gmr 0.011100;
	conductor_diameter 0.368000;
	conductor_resistance 0.970000;
	neutral_gmr 0.011100;
	neutral_resistance 0.970000;
	neutral_diameter 0.0640837;
	neutral_strands 6.000000;
	shield_gmr 0.000000;
	shield_resistance 0.000000;
}

// Overhead line configurations
object line_spacing:500601 {
	distance_AB 2.5;
	distance_AC 4.5;
	distance_BC 7.0;
	distance_BN 5.656854;
	distance_AN 4.272002;
	distance_CN 5.0;
}

// Overhead line configurations
object line_spacing:500602 {
	distance_AC 2.5;
	distance_AB 4.5;
	distance_BC 7.0;
	distance_CN 5.656854;
	distance_AN 4.272002;
	distance_BN 5.0;
}

object line_spacing:505603 {
	distance_AC 0.0;
	distance_AB 0.0;
	distance_BC 7.0;
	distance_AN 0.0;
	distance_CN 5.656854;
	distance_BN 5.0;
}

object line_spacing:505604 {
	distance_AC 7.0;
	distance_AB 0.0;
	distance_BC 0.0;
	distance_AN 5.656854;
	distance_CN 5.0;
	distance_BN 0.0;
}

object line_spacing:510 {
	distance_AC 0.0;
	distance_AB 0.0;
	distance_BC 0.0;
	distance_AN 0.0;
	distance_CN 5.0;
	distance_BN 0.0;
	}

object line_configuration:601 {
	conductor_A overhead_line_conductor:6010;
	conductor_B overhead_line_conductor:6010;
	conductor_C overhead_line_conductor:6010;
	conductor_N overhead_line_conductor:6020;
	spacing line_spacing:500601;
}

object line_configuration:602 {
	conductor_A overhead_line_conductor:6020;
	conductor_B overhead_line_conductor:6020;
	conductor_C overhead_line_conductor:6020;
	conductor_N overhead_line_conductor:6020;
	spacing line_spacing:500602;
}

object line_configuration:603 {
	conductor_B overhead_line_conductor:6030;
	conductor_C overhead_line_conductor:6030;
	conductor_N overhead_line_conductor:6030;
	spacing line_spacing:505603;
}

object line_configuration:604 {
	conductor_A overhead_line_conductor:6030;
	conductor_C overhead_line_conductor:6030;
	conductor_N overhead_line_conductor:6030;
	spacing line_spacing:505604;
}

object line_configuration:605 {
	conductor_C overhead_line_conductor:6030;
	conductor_N overhead_line_conductor:6030;
	spacing line_spacing:510;
}

object line_configuration:655 {
	conductor_A overhead_line_conductor:6030;
	conductor_N overhead_line_conductor:6030;
	spacing line_spacing:510;
}

object line_configuration:656 {
	conductor_B overhead_line_conductor:6030;
	conductor_N overhead_line_conductor:6030;
	spacing line_spacing:510;
}

// Underground line configuration
object line_spacing:515 {
	distance_AB 0.500000;
	distance_BC 0.500000;
	distance_AC 1.000000;
	distance_AN 0.000000;
	distance_BN 0.000000;
	distance_CN 0.000000;
}

object line_spacing:520 {
	distance_AB 0.000000;
	distance_BC 0.000000;
	distance_AC 0.000000;
	distance_AN 0.083333;
	distance_BN 0.000000;
	distance_CN 0.000000;
}

object line_configuration:606 {
	conductor_A underground_line_conductor:6060;
	conductor_B underground_line_conductor:6060;
	conductor_C underground_line_conductor:6060;
	spacing line_spacing:515;
}

object line_configuration:607 {
	conductor_A underground_line_conductor:6070;
	conductor_N underground_line_conductor:6070;
	spacing line_spacing:520;
}

// Define line objects
object overhead_line:632645 {
	phases "BCN";
	name OL632-645;
	from node:632;
	to node:645;
	length 500;
	configuration line_configuration:603;
}

object overhead_line:645646 {
	phases "BCN";
	name OL645-646;
	from node:645;
	to node:646;
	length 300;
	configuration line_configuration:603;
}

object overhead_line:630632 {
	phases "ABCN";
	name OL630-632;
	from node:630;
	to node:632;
	length 2000;
	configuration line_configuration:601;
}

// Split line for distributed load
object overhead_line:6326321 {
	phases "ABCN";
	name OL632-6321;
	from node:632;
	to node:6321;
	length 500;
	configuration line_configuration:601;
}

object overhead_line:6321671 {
	phases "ABCN";
	name OL6321-671;
	from node:6321;
	to node:671;
	length 1500;
	configuration line_configuration:601;
}

// End split line
object overhead_line:671680 {
	phases "ABCN";
	name OL671-680;
	from node:671;
	to node:680;
	length 1000;
	configuration line_configuration:601;
}

object overhead_line:671684 {
	phases "ACN";
	name OL671-684;
	from node:671;
	to node:684;
	length 300;
	configuration line_configuration:604;
}

object overhead_line:684611 {
	phases "CN";
	name OL684-611;
	from node:684;
	to node:611;
	length 300;
	configuration line_configuration:605;
}

object underground_line:684652 {
	phases "AN";
	name UL684-652;
	from node:684;
	to node:652;
	length 800;
	configuration line_configuration:607;
}

object underground_line:692675 {
	phases "ABC";
	name UL692-675;
	from node:692;
	to node:675;
	length 500;
	configuration line_configuration:606;
}

object overhead_line:632633 {
	phases "ABCN";
	name UL632-633;
	from node:632;
	to node:633;
	length 500;
	configuration line_configuration:602;
}

// Create node objects

//Node 630
object node:630 {
	name N630;
	phases "ABCN";
	voltage_A 2401.7771+0j;
	voltage_B -1200.8886-2080.000j;
	voltage_C -1200.8886+2080.000j;
	nominal_voltage 2401.7771;
}

//Node 650
object node:650 {
	name N650;
	phases "ABCN";
	bustype SWING;
	voltage_A 2401.7771;
	voltage_B -1200.8886-2080.000j;
	voltage_C -1200.8886+2080.000j;
	nominal_voltage 2401.7771;
}
//Node 671
object node:671 {
	name N671;
	phases "ABCN";
	voltage_A 2401.7771;
	voltage_B -1200.8886-2080.000j;
	voltage_C -1200.8886+2080.000j;
	nominal_voltage 2401.7771;
}
//Node 680
object node:680 {
	name N680;
	phases "ABCN";
	voltage_A 2401.7771;
	voltage_B -1200.8886-2080.000j;
	voltage_C -1200.8886+2080.000j;
	nominal_voltage 2401.7771;
}


// distributed load between node 632 and 671
// 2/3 of load 1/4 of length down line
//Node 6711
object node:6711 {
	name N6711;
	parent N611;
	phases "CN";
	voltage_C -1200.8886+2080.000j;
	nominal_voltage 2401.7771;
}
//Node 6321
object node:6321 {
	name N6321;
	phases "ABCN";
	voltage_A 2401.7771;
	voltage_B -1200.8886-2080.000j;
	voltage_C -1200.8886+2080.000j;
	nominal_voltage 2401.7771;
}

// Create node objects with attached loads

//Node 634
object node:634 {
	name N634;
	phases "ABCN";
	voltage_A 480.000+0j;
	voltage_B -240.000-415.6922j;
	voltage_C -240.000+415.6922j;
	nominal_voltage 480.000;
}



//Node 675
object node:675 {
	name N675;
	phases "ABCN";
	voltage_A 2401.7771;
	voltage_B -1200.8886-2080.000j;
	voltage_C -1200.8886+2080.000j;
	nominal_voltage 2401.7771;
}

//------------------------------------------------------------------------------
// Switch
object switch:671692 {
	phases "ABCN";
	name S671-692;
	from node:671;
	to node:692;
	status OPEN;
}
// Transformer
object transformer_configuration:400 {
	connect_type WYE_WYE; //connected as WYE_WYE
  	install_type PADMOUNT;  //install type of the transformer pole-mount transformers
  	power_rating 500; //the power rating KVA
  	primary_voltage 4160;
  	secondary_voltage 480;
  	resistance 0.011;
  	reactance 0.02;
}

object transformer:633634 {
  	phases "ABCN";
  	name T633-634;
  	from node:633;
  	to node:634;
  	configuration transformer_configuration:400;
}


object transformer_configuration {
	name AS100_config;
	connect_type SINGLE_PHASE_CENTER_TAPPED;
	install_type POLETOP;
	powerA_rating 100;   //
	primary_voltage 2401;
	secondary_voltage 120.000;
	impedance 0.006+0.0136j;
}

object transformer_configuration {
	name BS100_config;
	connect_type SINGLE_PHASE_CENTER_TAPPED;
	install_type POLETOP;
	powerB_rating 100;
	primary_voltage 2401;
	secondary_voltage 120.000;
	impedance 0.006+0.0136j;
}

object transformer_configuration {
	name CS100_config; 																// changed from CS35_config
	connect_type SINGLE_PHASE_CENTER_TAPPED;
	install_type POLETOP;
	powerC_rating 100; 																// changed from 35 to 100
	primary_voltage 2401;
	secondary_voltage 120.000;
	impedance 0.006+0.0136j;
}

object transformer_configuration {
	name AS_config_node634;
	connect_type SINGLE_PHASE_CENTER_TAPPED;
	install_type POLETOP;
	powerA_rating 75;
	primary_voltage 480.0000;
	secondary_voltage 120.000;
	impedance 0.006+0.0136j;
}

object transformer_configuration {
	name BS_config_node634;
	connect_type SINGLE_PHASE_CENTER_TAPPED;
	install_type POLETOP;
	powerB_rating 75;
	primary_voltage 480.0000;
	secondary_voltage 120.000;
	impedance 0.006+0.0136j;
}

object transformer_configuration {
	name CS_config_node634;
	connect_type SINGLE_PHASE_CENTER_TAPPED;
	install_type POLETOP;
	powerC_rating 75;
	primary_voltage 480.0000;
	secondary_voltage 120.000;
	impedance 0.006+0.0136j;
}

//other design for the voltage regulator:
object regulator_configuration:6506321 {
	  connect_type WYE_WYE;
	  band_center 122.000;
	  band_width 2.0;
	  time_delay 0.0;
	  dwell_time 0.0;
	  raise_taps 16;
	  lower_taps 16;
		current_transducer_ratio 700;
		power_transducer_ratio 20;
		compensator_r_setting_A 3.0;
	  compensator_x_setting_A 9.0;
		compensator_r_setting_B 3.0;
	  compensator_x_setting_B 9.0;
		compensator_r_setting_C 3.0;
	  compensator_x_setting_C 9.0;
		CT_phase "ABC";
	  PT_phase "ABC";
	  Control MANUAL;
	  control_level INDIVIDUAL;
	  Type A;
	  tap_pos_A 0;
	  tap_pos_B 0;
	  tap_pos_C 0;
	  regulation 0.10;
}
object regulator:650630 {
	phases "ABCN";
	from node:650;
	to node:630;
	sense_node N671;
	configuration regulator_configuration:6506321;
}

object capacitor {
	phases ABCN;
	name CAP1;
	pt_phase ABCN;
	parent N675;
	phases_connected ABCN;
	control VOLT;
	voltage_set_high 2500.0;
	voltage_set_low 1950.0;
	capacitor_A 0.300 MVAr;
	capacitor_B 0.300 MVAr;
	capacitor_C 0.300 MVAr;
	control_level INDIVIDUAL;
	time_delay 0.0;
	dwell_time 0.0;
	switchA CLOSED;				// manual controls for load manipulation
	switchB CLOSED;
	switchC CLOSED;
	nominal_voltage 2401.7771;
}

object capacitor {
	phases ABCN;
	name CAP2;
	pt_phase ABCN;
	parent N675;
	phases_connected ABCN;
	control VOLT;
	voltage_set_high 2600.0;
	voltage_set_low 2050.0;
	capacitor_A 0.250 MVAr;
  capacitor_B 0.250 MVAr;
	capacitor_C 0.250 MVAr;
	control_level INDIVIDUAL;
	time_delay 300.0;
	dwell_time 0.0;
	switchA CLOSED;				// manual controls for load manipulation
	switchB CLOSED;
	switchC CLOSED;
	nominal_voltage 2401.7771;
}


//Node 646
object node:646 {
	name N646;
	phases "BCN";
	voltage_A 2401.7771;
	voltage_B -1200.8886-2080.000j;
	voltage_C -1200.8886+2080.000j;
	nominal_voltage 2401.7771;
}

////////////////////////////////////////////////////////////
// Node 652, single phase (A)
////////////////////////////////////////////////////////////
//Node 652
object node:652 {
	name N652;
	phases "AN";
	voltage_A 2401.7771;
	voltage_B -1200.8886-2080.000j;
	voltage_C -1200.8886+2080.000j;
	nominal_voltage 2401.7771;
}

object overhead_line {
	name OL_652_A; //646toM646 line from node to node meter
	phases "AN";
	from N652;
	to meter_652_A;
	length 10;
	configuration line_configuration:655;
}

object meter {
	name meter_652_A;
	phases "AN";
	nominal_voltage 2401.7771;
}

//Node 611
object node:611 {
	name N611;
	phases "CN";
	voltage_A 2401.7771;
	voltage_B -1200.8886-2080.000j;
	voltage_C -1200.8886+2080.000j;
	nominal_voltage 2401.7771;
}

object overhead_line {
	name OL_611_C;
	phases "CN";
	from N611;
	to meter_611_C;
	length 10;
	configuration line_configuration:605;
}

object meter {
	name meter_611_C;
	phases "CN";
	nominal_voltage 2401.7771;
}

//Node 684 | 2-phase (A C)
object node:684 {
	name N684;
	phases "ACN";
	voltage_A 2401.7771;
	voltage_B -1200.8886-2080.000j;
	voltage_C -1200.8886+2080.000j;
	nominal_voltage 2401.7771;
}

object overhead_line {
	name OL_684_A; //684toM684 line from node to node meter
	phases "AN";
	from N684;
	to meter_684_A;
	length 10;
	configuration line_configuration:655;
}

object overhead_line {
	name OL_684_C; //684toM684 line from node to node meter
	phases "CN";
	from N684;
	to meter_684_C;
	length 10;
	configuration line_configuration:605;
}

object meter {
	name meter_684_A;
	phases "AN";
	nominal_voltage 2401.7771;
}

object meter {
	name meter_684_C;
	phases "CN";
	nominal_voltage 2401.7771;
}

//Node 645 | 2-phase (B C)
//Node 645
object node:645 {
	name N645;
	phases "BCN";
	voltage_A 2401.7771;
	voltage_B -1200.8886-2080.000j;
	voltage_C -1200.8886+2080.000j;
	nominal_voltage 2401.7771;
}

object overhead_line {
	name OL_645_B; //645toM645 line from node to node meter
	phases "BN";
	from N645;
	to meter_645_B;
	length 10;
	configuration line_configuration:656;
}

object overhead_line {
	name OL_645_C; //645toM645 line from node to node meter
	phases "CN";
	from N645;
	to meter_645_C;
	length 10;
	configuration line_configuration:605;
}

object meter {
	name meter_645_B;
	phases "BN";
	nominal_voltage 2401.7771;
}

object meter {
	name meter_645_C;
	phases "CN";
	nominal_voltage 2401.7771;
}

//Node 633 | 3-phase
//Node 633
object node:633 {
	name N633;
	phases "ABCN";
	voltage_A 2401.7771;
	voltage_B -1200.8886-2080.000j;
	voltage_C -1200.8886+2080.000j;
	nominal_voltage 2401.7771;
}

object overhead_line {
	name OL_633_A; //633toM633 line from node to node meter
	phases "AN";
	from N633;
	to meter_633_A;
	length 10;
	configuration line_configuration:655;
}

object overhead_line {
	name OL_633_B; //633toM633 line from node to node meter
	phases "BN";
	from N633;
	to meter_633_B;
	length 10;
	configuration line_configuration:656;
}

object overhead_line {
	name OL_633_C; //633toM633 line from node to node meter
	phases "CN";
	from N633;
	to meter_633_C;
	length 10;
	configuration line_configuration:605;
}

object meter {
	name meter_633_A;
	phases "AN";
	nominal_voltage 2401.7771;
}

object meter {
	name meter_633_B;
	phases "BN";
	nominal_voltage 2401.7771;
}

object meter {
	name meter_633_C;
	phases "CN";
	nominal_voltage 2401.7771;
}


//Node 632
object node:632 {
	name N632;
	phases "ABCN";
	voltage_A 2401.7771;
	voltage_B -1200.8886-2080.000j;
	voltage_C -1200.8886+2080.000j;
	nominal_voltage 2401.7771;
}

object overhead_line {
	name OL_632_A; //632toM632 line from node to node meter
	phases "AN";
	from N632;
	to meter_632_A;
	length 10;
	configuration line_configuration:655;
}

object overhead_line {
	name OL_632_B; //632toM632 line from node to node meter
	phases "BN";
	from N632;
	to meter_632_B;
	length 10;
	configuration line_configuration:656;
}

object overhead_line {
	name OL_632_C; //632toM632 line from node to node meter
	phases "CN";
	from N632;
	to meter_632_C;
	length 10;
	configuration line_configuration:605;
}

object meter {
	name meter_632_A;
	phases "AN";
	nominal_voltage 2401.7771;
}

object meter {
	name meter_632_B;
	phases "BN";
	nominal_voltage 2401.7771;
}

object meter {
	name meter_632_C;
	phases "CN";
	nominal_voltage 2401.7771;
}

//Node 692
object node:692 {
	name N692;
	phases "ABCN";
	voltage_A 2401.7771;
	voltage_B -1200.8886-2080.000j;
	voltage_C -1200.8886+2080.000j;
	nominal_voltage 2401.7771;
}

object overhead_line {
	name OL_692_A; //692toM692 line from node to node meter
	phases "AN";
	from N692;
	to meter_692_A;
	length 10;
	configuration line_configuration:655;
}

object overhead_line {
	name OL_692_B; //692toM692 line from node to node meter
	phases "BN";
	from N692;
	to meter_692_B;
	length 10;
	configuration line_configuration:656;
}

object overhead_line {
	name OL_692_C; //692toM692 line from node to node meter
	phases "CN";
	from N692;
	to meter_692_C;
	length 10;
	configuration line_configuration:605;
}

object meter {
	name meter_692_A;
	phases "AN";
	nominal_voltage 2401.7771;
}

object meter {
	name meter_692_B;
	phases "BN";
	nominal_voltage 2401.7771;
}

object meter {
	name meter_692_C;
	phases "CN";
	nominal_voltage 2401.7771;
}

/////////////////////////////
//--R E C O R D E R S-----------------------------------------------------------
/////////////////////////////
//Recorders for Node 652 A
//real power
object multi_recorder {
    interval 900;
    property meter_652_A:measured_power.real,xfmr_meter_652_A_1:measured_power.real,xfmr_meter_652_A_2:measured_power.real,xfmr_meter_652_A_3:measured_power.real,xfmr_meter_652_A_4:measured_power.real,xfmr_meter_652_A_5:measured_power.real,house_meter_652_A_1:measured_power.real,house_meter_652_A_2:measured_power.real,house_meter_652_A_3:measured_power.real,house_meter_652_A_4:measured_power.real,house_meter_652_A_5:measured_power.real,house_meter_652_A_6:measured_power.real,house_meter_652_A_7:measured_power.real,house_meter_652_A_8:measured_power.real,house_meter_652_A_9:measured_power.real,house_meter_652_A_10:measured_power.real,house_meter_652_A_11:measured_power.real,house_meter_652_A_12:measured_power.real,house_meter_652_A_13:measured_power.real,house_meter_652_A_14:measured_power.real,house_meter_652_A_15:measured_power.real,house_meter_652_A_16:measured_power.real,house_meter_652_A_17:measured_power.real,house_meter_652_A_18:measured_power.real,house_meter_652_A_19:measured_power.real;
    file Meter_652A_Power.real.csv;
}

object multi_recorder{
	interval 900;
	property house_meter_652_A_20:measured_power.real,house_meter_652_A_21:measured_power.real,house_meter_652_A_22:measured_power.real,house_meter_652_A_23:measured_power.real,house_meter_652_A_24:measured_power.real,house_meter_652_A_25:measured_power.real,house_meter_652_A_26:measured_power.real,house_meter_652_A_27:measured_power.real,house_meter_652_A_28:measured_power.real,house_meter_652_A_29:measured_power.real,house_meter_652_A_30:measured_power.real,house_meter_652_A_31:measured_power.real,house_meter_652_A_32:measured_power.real,house_meter_652_A_33:measured_power.real,house_meter_652_A_34:measured_power.real,house_meter_652_A_35:measured_power.real,house_meter_652_A_36:measured_power.real,house_meter_652_A_37:measured_power.real,house_meter_652_A_38:measured_power.real,house_meter_652_A_39:measured_power.real,house_meter_652_A_40:measured_power.real;
	file 1Meter_652_A_power.real.csv;
}

// VA power
object multi_recorder {
    interval 900;
    property meter_652_A:measured_power,xfmr_meter_652_A_1:measured_power,xfmr_meter_652_A_2:measured_power,xfmr_meter_652_A_3:measured_power,xfmr_meter_652_A_4:measured_power,xfmr_meter_652_A_5:measured_power,house_meter_652_A_1:measured_power,house_meter_652_A_2:measured_power,house_meter_652_A_3:measured_power,house_meter_652_A_4:measured_power,house_meter_652_A_5:measured_power,house_meter_652_A_6:measured_power,house_meter_652_A_7:measured_power,house_meter_652_A_8:measured_power,house_meter_652_A_9:measured_power,house_meter_652_A_10:measured_power,house_meter_652_A_11:measured_power,house_meter_652_A_12:measured_power,house_meter_652_A_13:measured_power,house_meter_652_A_14:measured_power,house_meter_652_A_15:measured_power,house_meter_652_A_16:measured_power,house_meter_652_A_17:measured_power,house_meter_652_A_18:measured_power,house_meter_652_A_19:measured_power,house_meter_652_A_20:measured_power,house_meter_652_A_21:measured_power,house_meter_652_A_22:measured_power,house_meter_652_A_23:measured_power;
    file Meter_652A_Power.csv;
}

object multi_recorder{
	interval 900;
	property house_meter_652_A_24:measured_power,house_meter_652_A_25:measured_power,house_meter_652_A_26:measured_power,house_meter_652_A_27:measured_power,house_meter_652_A_28:measured_power,house_meter_652_A_29:measured_power,house_meter_652_A_30:measured_power,house_meter_652_A_31:measured_power,house_meter_652_A_32:measured_power,house_meter_652_A_33:measured_power,house_meter_652_A_34:measured_power,house_meter_652_A_35:measured_power,house_meter_652_A_36:measured_power,house_meter_652_A_37:measured_power,house_meter_652_A_38:measured_power,house_meter_652_A_39:measured_power,house_meter_652_A_40:measured_power;
	file 1Meter_652_A_power.csv;
}

//Recorders for Node 611 C
//real power
object multi_recorder {
    interval 900;
    property meter_611_C:measured_power.real,xfmr_meter_611_C_1:measured_power.real,xfmr_meter_611_C_2:measured_power.real,xfmr_meter_611_C_3:measured_power.real,xfmr_meter_611_C_4:measured_power.real,xfmr_meter_611_C_5:measured_power.real,house_meter_611_C_1:measured_power.real,house_meter_611_C_2:measured_power.real,house_meter_611_C_3:measured_power.real,house_meter_611_C_4:measured_power.real,house_meter_611_C_5:measured_power.real,house_meter_611_C_6:measured_power.real,house_meter_611_C_7:measured_power.real,house_meter_611_C_8:measured_power.real,house_meter_611_C_9:measured_power.real,house_meter_611_C_10:measured_power.real,house_meter_611_C_11:measured_power.real,house_meter_611_C_12:measured_power.real,house_meter_611_C_13:measured_power.real,house_meter_611_C_14:measured_power.real,house_meter_611_C_15:measured_power.real,house_meter_611_C_16:measured_power.real,house_meter_611_C_17:measured_power.real,house_meter_611_C_18:measured_power.real,house_meter_611_C_19:measured_power.real;
    file Meter_611_C_Power.real.csv;
}

object multi_recorder{
	interval 900;
	property house_meter_611_C_20:measured_power.real,house_meter_611_C_21:measured_power.real,house_meter_611_C_22:measured_power.real,house_meter_611_C_23:measured_power.real,house_meter_611_C_24:measured_power.real,house_meter_611_C_25:measured_power.real,house_meter_611_C_26:measured_power.real,house_meter_611_C_27:measured_power.real,house_meter_611_C_28:measured_power.real,house_meter_611_C_29:measured_power.real,house_meter_611_C_30:measured_power.real,house_meter_611_C_31:measured_power.real,house_meter_611_C_32:measured_power.real,house_meter_611_C_33:measured_power.real,house_meter_611_C_34:measured_power.real,house_meter_611_C_35:measured_power.real,house_meter_611_C_36:measured_power.real,house_meter_611_C_37:measured_power.real,house_meter_611_C_38:measured_power.real,house_meter_611_C_39:measured_power.real,house_meter_611_C_40:measured_power.real;
	file 1Meter_611_C_power.real.csv;
}

// VA power
object multi_recorder {
    interval 900;
    property meter_611_C:measured_power,xfmr_meter_611_C_1:measured_power,xfmr_meter_611_C_2:measured_power,xfmr_meter_611_C_3:measured_power,xfmr_meter_611_C_4:measured_power,xfmr_meter_611_C_5:measured_power,house_meter_611_C_1:measured_power,house_meter_611_C_2:measured_power,house_meter_611_C_3:measured_power,house_meter_611_C_4:measured_power,house_meter_611_C_5:measured_power,house_meter_611_C_6:measured_power,house_meter_611_C_7:measured_power,house_meter_611_C_8:measured_power,house_meter_611_C_9:measured_power,house_meter_611_C_10:measured_power,house_meter_611_C_11:measured_power,house_meter_611_C_12:measured_power,house_meter_611_C_13:measured_power,house_meter_611_C_14:measured_power,house_meter_611_C_15:measured_power,house_meter_611_C_16:measured_power,house_meter_611_C_17:measured_power,house_meter_611_C_18:measured_power,house_meter_611_C_19:measured_power,house_meter_611_C_20:measured_power,house_meter_611_C_21:measured_power,house_meter_611_C_22:measured_power,house_meter_611_C_23:measured_power;
    file Meter_611_C_Power.csv;
}

object multi_recorder{
	interval 900;
	property house_meter_611_C_24:measured_power,house_meter_611_C_25:measured_power,house_meter_611_C_26:measured_power,house_meter_611_C_27:measured_power,house_meter_611_C_28:measured_power,house_meter_611_C_29:measured_power,house_meter_611_C_30:measured_power,house_meter_611_C_31:measured_power,house_meter_611_C_32:measured_power,house_meter_611_C_33:measured_power,house_meter_611_C_34:measured_power,house_meter_611_C_35:measured_power,house_meter_611_C_36:measured_power,house_meter_611_C_37:measured_power,house_meter_611_C_38:measured_power,house_meter_611_C_39:measured_power,house_meter_611_C_40:measured_power;
	file 1Meter_611_C_power.csv;
}

//node 684 C
//real power
object multi_recorder {
    interval 900;
    property meter_684_C:measured_power.real,xfmr_meter_684_C_1:measured_power.real,xfmr_meter_684_C_2:measured_power.real,xfmr_meter_684_C_3:measured_power.real,xfmr_meter_684_C_4:measured_power.real,xfmr_meter_684_C_5:measured_power.real,house_meter_684_C_1:measured_power.real,house_meter_684_C_2:measured_power.real,house_meter_684_C_3:measured_power.real,house_meter_684_C_4:measured_power.real,house_meter_684_C_5:measured_power.real,house_meter_684_C_6:measured_power.real,house_meter_684_C_7:measured_power.real,house_meter_684_C_8:measured_power.real,house_meter_684_C_9:measured_power.real,house_meter_684_C_10:measured_power.real,house_meter_684_C_11:measured_power.real,house_meter_684_C_12:measured_power.real,house_meter_684_C_13:measured_power.real,house_meter_684_C_14:measured_power.real,house_meter_684_C_15:measured_power.real,house_meter_684_C_16:measured_power.real,house_meter_684_C_17:measured_power.real,house_meter_684_C_18:measured_power.real,house_meter_684_C_19:measured_power.real;
    file Meter_684_C_Power.real.csv;
}

object multi_recorder{
	interval 900;
	property house_meter_684_C_20:measured_power.real,house_meter_684_C_21:measured_power.real,house_meter_684_C_22:measured_power.real,house_meter_684_C_23:measured_power.real,house_meter_684_C_24:measured_power.real,house_meter_684_C_25:measured_power.real,house_meter_684_C_26:measured_power.real,house_meter_684_C_27:measured_power.real,house_meter_684_C_28:measured_power.real,house_meter_684_C_29:measured_power.real,house_meter_684_C_30:measured_power.real,house_meter_684_C_31:measured_power.real,house_meter_684_C_32:measured_power.real,house_meter_684_C_33:measured_power.real,house_meter_684_C_34:measured_power.real,house_meter_684_C_35:measured_power.real,house_meter_684_C_36:measured_power.real,house_meter_684_C_37:measured_power.real,house_meter_684_C_38:measured_power.real,house_meter_684_C_39:measured_power.real,house_meter_684_C_40:measured_power.real;
	file 1Meter_684_C_power.real.csv;
}

// VA power
object multi_recorder {
    interval 900;
    property meter_684_C:measured_power,xfmr_meter_684_C_1:measured_power,xfmr_meter_684_C_2:measured_power,xfmr_meter_684_C_3:measured_power,xfmr_meter_684_C_4:measured_power,xfmr_meter_684_C_5:measured_power,house_meter_684_C_1:measured_power,house_meter_684_C_2:measured_power,house_meter_684_C_3:measured_power,house_meter_684_C_4:measured_power,house_meter_684_C_5:measured_power,house_meter_684_C_6:measured_power,house_meter_684_C_7:measured_power,house_meter_684_C_8:measured_power,house_meter_684_C_9:measured_power,house_meter_684_C_10:measured_power,house_meter_684_C_11:measured_power,house_meter_684_C_12:measured_power,house_meter_684_C_13:measured_power,house_meter_684_C_14:measured_power,house_meter_684_C_15:measured_power,house_meter_684_C_16:measured_power,house_meter_684_C_17:measured_power,house_meter_684_C_18:measured_power,house_meter_684_C_19:measured_power,house_meter_684_C_20:measured_power,house_meter_684_C_21:measured_power,house_meter_684_C_22:measured_power,house_meter_684_C_23:measured_power;
    file Meter_684_C_Power.csv;
}

object multi_recorder{
	interval 900;
	property house_meter_684_C_24:measured_power,house_meter_684_C_25:measured_power,house_meter_684_C_26:measured_power,house_meter_684_C_27:measured_power,house_meter_684_C_28:measured_power,house_meter_684_C_29:measured_power,house_meter_684_C_30:measured_power,house_meter_684_C_31:measured_power,house_meter_684_C_32:measured_power,house_meter_684_C_33:measured_power,house_meter_684_C_34:measured_power,house_meter_684_C_35:measured_power,house_meter_684_C_36:measured_power,house_meter_684_C_37:measured_power,house_meter_684_C_38:measured_power,house_meter_684_C_39:measured_power,house_meter_684_C_40:measured_power;
	file 1Meter_684_C_power.csv;
}

//node 684 A
//real power
object multi_recorder {
    interval 900;
    property meter_684_A:measured_power.real,xfmr_meter_684_A_1:measured_power.real,xfmr_meter_684_A_2:measured_power.real,xfmr_meter_684_A_3:measured_power.real,xfmr_meter_684_A_4:measured_power.real,xfmr_meter_684_A_5:measured_power.real,house_meter_684_A_1:measured_power.real,house_meter_684_A_2:measured_power.real,house_meter_684_A_3:measured_power.real,house_meter_684_A_4:measured_power.real,house_meter_684_A_5:measured_power.real,house_meter_684_A_6:measured_power.real,house_meter_684_A_7:measured_power.real,house_meter_684_A_8:measured_power.real,house_meter_684_A_9:measured_power.real,house_meter_684_A_10:measured_power.real,house_meter_684_A_11:measured_power.real,house_meter_684_A_12:measured_power.real,house_meter_684_A_13:measured_power.real,house_meter_684_A_14:measured_power.real,house_meter_684_A_15:measured_power.real,house_meter_684_A_16:measured_power.real,house_meter_684_A_17:measured_power.real,house_meter_684_A_18:measured_power.real,house_meter_684_A_19:measured_power.real;
    file Meter_684_A_Power.real.csv;
}

object multi_recorder{
	interval 900;
	property house_meter_684_A_20:measured_power.real,house_meter_684_A_21:measured_power.real,house_meter_684_A_22:measured_power.real,house_meter_684_A_23:measured_power.real,house_meter_684_A_24:measured_power.real,house_meter_684_A_25:measured_power.real,house_meter_684_A_26:measured_power.real,house_meter_684_A_27:measured_power.real,house_meter_684_A_28:measured_power.real,house_meter_684_A_29:measured_power.real,house_meter_684_A_30:measured_power.real,house_meter_684_A_31:measured_power.real,house_meter_684_A_32:measured_power.real,house_meter_684_A_33:measured_power.real,house_meter_684_A_34:measured_power.real,house_meter_684_A_35:measured_power.real,house_meter_684_A_36:measured_power.real,house_meter_684_A_37:measured_power.real,house_meter_684_A_38:measured_power.real,house_meter_684_A_39:measured_power.real,house_meter_684_A_40:measured_power.real;
	file 1Meter_684_A_power.real.csv;
}

// VA power
object multi_recorder {
    interval 900;
    property meter_684_A:measured_power,xfmr_meter_684_A_1:measured_power,xfmr_meter_684_A_2:measured_power,xfmr_meter_684_A_3:measured_power,xfmr_meter_684_A_4:measured_power,xfmr_meter_684_A_5:measured_power,house_meter_684_A_1:measured_power,house_meter_684_A_2:measured_power,house_meter_684_A_3:measured_power,house_meter_684_A_4:measured_power,house_meter_684_A_5:measured_power,house_meter_684_A_6:measured_power,house_meter_684_A_7:measured_power,house_meter_684_A_8:measured_power,house_meter_684_A_9:measured_power,house_meter_684_A_10:measured_power,house_meter_684_A_11:measured_power,house_meter_684_A_12:measured_power,house_meter_684_A_13:measured_power,house_meter_684_A_14:measured_power,house_meter_684_A_15:measured_power,house_meter_684_A_16:measured_power,house_meter_684_A_17:measured_power,house_meter_684_A_18:measured_power,house_meter_684_A_19:measured_power,house_meter_684_A_20:measured_power,house_meter_684_A_21:measured_power,house_meter_684_A_22:measured_power,house_meter_684_A_23:measured_power;
    file Meter_684_A_Power.csv;
}

object multi_recorder{
	interval 900;
	property house_meter_684_A_24:measured_power,house_meter_684_A_25:measured_power,house_meter_684_A_26:measured_power,house_meter_684_A_27:measured_power,house_meter_684_A_28:measured_power,house_meter_684_A_29:measured_power,house_meter_684_A_30:measured_power,house_meter_684_A_31:measured_power,house_meter_684_A_32:measured_power,house_meter_684_A_33:measured_power,house_meter_684_A_34:measured_power,house_meter_684_A_35:measured_power,house_meter_684_A_36:measured_power,house_meter_684_A_37:measured_power,house_meter_684_A_38:measured_power,house_meter_684_A_39:measured_power,house_meter_684_A_40:measured_power;
	file 1Meter_684_A_power.csv;
}

//node 645 B
//real power
object multi_recorder {
    interval 900;
    property meter_645_B:measured_power.real,xfmr_meter_645_B_1:measured_power.real,xfmr_meter_645_B_2:measured_power.real,xfmr_meter_645_B_3:measured_power.real,xfmr_meter_645_B_4:measured_power.real,xfmr_meter_645_B_5:measured_power.real,house_meter_645_B_1:measured_power.real,house_meter_645_B_2:measured_power.real,house_meter_645_B_3:measured_power.real,house_meter_645_B_4:measured_power.real,house_meter_645_B_5:measured_power.real,house_meter_645_B_6:measured_power.real,house_meter_645_B_7:measured_power.real,house_meter_645_B_8:measured_power.real,house_meter_645_B_9:measured_power.real,house_meter_645_B_10:measured_power.real,house_meter_645_B_11:measured_power.real,house_meter_645_B_12:measured_power.real,house_meter_645_B_13:measured_power.real,house_meter_645_B_14:measured_power.real,house_meter_645_B_15:measured_power.real,house_meter_645_B_16:measured_power.real,house_meter_645_B_17:measured_power.real,house_meter_645_B_18:measured_power.real,house_meter_645_B_19:measured_power.real;
    file Meter_645_B_Power.real.csv;
}

object multi_recorder{
	interval 900;
	property house_meter_645_B_20:measured_power.real,house_meter_645_B_21:measured_power.real,house_meter_645_B_22:measured_power.real,house_meter_645_B_23:measured_power.real,house_meter_645_B_24:measured_power.real,house_meter_645_B_25:measured_power.real,house_meter_645_B_26:measured_power.real,house_meter_645_B_27:measured_power.real,house_meter_645_B_28:measured_power.real,house_meter_645_B_29:measured_power.real,house_meter_645_B_30:measured_power.real,house_meter_645_B_31:measured_power.real,house_meter_645_B_32:measured_power.real,house_meter_645_B_33:measured_power.real,house_meter_645_B_34:measured_power.real,house_meter_645_B_35:measured_power.real,house_meter_645_B_36:measured_power.real,house_meter_645_B_37:measured_power.real,house_meter_645_B_38:measured_power.real,house_meter_645_B_39:measured_power.real,house_meter_645_B_40:measured_power.real;
	file 1Meter_645_B_power.real.csv;
}

// VA power
object multi_recorder {
    interval 900;
    property meter_645_B:measured_power,xfmr_meter_645_B_1:measured_power,xfmr_meter_645_B_2:measured_power,xfmr_meter_645_B_3:measured_power,xfmr_meter_645_B_4:measured_power,xfmr_meter_645_B_5:measured_power,house_meter_645_B_1:measured_power,house_meter_645_B_2:measured_power,house_meter_645_B_3:measured_power,house_meter_645_B_4:measured_power,house_meter_645_B_5:measured_power,house_meter_645_B_6:measured_power,house_meter_645_B_7:measured_power,house_meter_645_B_8:measured_power,house_meter_645_B_9:measured_power,house_meter_645_B_10:measured_power,house_meter_645_B_11:measured_power,house_meter_645_B_12:measured_power,house_meter_645_B_13:measured_power,house_meter_645_B_14:measured_power,house_meter_645_B_15:measured_power,house_meter_645_B_16:measured_power,house_meter_645_B_17:measured_power,house_meter_645_B_18:measured_power,house_meter_645_B_19:measured_power,house_meter_645_B_20:measured_power,house_meter_645_B_21:measured_power,house_meter_645_B_22:measured_power,house_meter_645_B_23:measured_power;
    file Meter_645_B_Power.csv;
}

object multi_recorder{
	interval 900;
	property house_meter_645_B_24:measured_power,house_meter_645_B_25:measured_power,house_meter_645_B_26:measured_power,house_meter_645_B_27:measured_power,house_meter_645_B_28:measured_power,house_meter_645_B_29:measured_power,house_meter_645_B_30:measured_power,house_meter_645_B_31:measured_power,house_meter_645_B_32:measured_power,house_meter_645_B_33:measured_power,house_meter_645_B_34:measured_power,house_meter_645_B_35:measured_power,house_meter_645_B_36:measured_power,house_meter_645_B_37:measured_power,house_meter_645_B_38:measured_power,house_meter_645_B_39:measured_power,house_meter_645_B_40:measured_power;
	file 1Meter_645_B_power.csv;
}

//node 645 C
//real power
object multi_recorder {
    interval 900;
    property meter_645_C:measured_power.real,xfmr_meter_645_C_1:measured_power.real,xfmr_meter_645_C_2:measured_power.real,xfmr_meter_645_C_3:measured_power.real,xfmr_meter_645_C_4:measured_power.real,xfmr_meter_645_C_5:measured_power.real,house_meter_645_C_1:measured_power.real,house_meter_645_C_2:measured_power.real,house_meter_645_C_3:measured_power.real,house_meter_645_C_4:measured_power.real,house_meter_645_C_5:measured_power.real,house_meter_645_C_6:measured_power.real,house_meter_645_C_7:measured_power.real,house_meter_645_C_8:measured_power.real,house_meter_645_C_9:measured_power.real,house_meter_645_C_10:measured_power.real,house_meter_645_C_11:measured_power.real,house_meter_645_C_12:measured_power.real,house_meter_645_C_13:measured_power.real,house_meter_645_C_14:measured_power.real,house_meter_645_C_15:measured_power.real,house_meter_645_C_16:measured_power.real,house_meter_645_C_17:measured_power.real,house_meter_645_C_18:measured_power.real,house_meter_645_C_19:measured_power.real;
    file Meter_645_C_Power.real.csv;
}

object multi_recorder{
	interval 900;
	property house_meter_645_C_20:measured_power.real,house_meter_645_C_21:measured_power.real,house_meter_645_C_22:measured_power.real,house_meter_645_C_23:measured_power.real,house_meter_645_C_24:measured_power.real,house_meter_645_C_25:measured_power.real,house_meter_645_C_26:measured_power.real,house_meter_645_C_27:measured_power.real,house_meter_645_C_28:measured_power.real,house_meter_645_C_29:measured_power.real,house_meter_645_C_30:measured_power.real,house_meter_645_C_31:measured_power.real,house_meter_645_C_32:measured_power.real,house_meter_645_C_33:measured_power.real,house_meter_645_C_34:measured_power.real,house_meter_645_C_35:measured_power.real,house_meter_645_C_36:measured_power.real,house_meter_645_C_37:measured_power.real,house_meter_645_C_38:measured_power.real,house_meter_645_C_39:measured_power.real,house_meter_645_C_40:measured_power.real;
	file 1Meter_645_C_power.real.csv;
}

// VA power
object multi_recorder {
    interval 900;
    property meter_645_C:measured_power,xfmr_meter_645_C_1:measured_power,xfmr_meter_645_C_2:measured_power,xfmr_meter_645_C_3:measured_power,xfmr_meter_645_C_4:measured_power,xfmr_meter_645_C_5:measured_power,house_meter_645_C_1:measured_power,house_meter_645_C_2:measured_power,house_meter_645_C_3:measured_power,house_meter_645_C_4:measured_power,house_meter_645_C_5:measured_power,house_meter_645_C_6:measured_power,house_meter_645_C_7:measured_power,house_meter_645_C_8:measured_power,house_meter_645_C_9:measured_power,house_meter_645_C_10:measured_power,house_meter_645_C_11:measured_power,house_meter_645_C_12:measured_power,house_meter_645_C_13:measured_power,house_meter_645_C_14:measured_power,house_meter_645_C_15:measured_power,house_meter_645_C_16:measured_power,house_meter_645_C_17:measured_power,house_meter_645_C_18:measured_power,house_meter_645_C_19:measured_power,house_meter_645_C_20:measured_power,house_meter_645_C_21:measured_power,house_meter_645_C_22:measured_power,house_meter_645_C_23:measured_power;
    file Meter_645_C_Power.csv;
}

object multi_recorder{
	interval 900;
	property house_meter_645_C_24:measured_power,house_meter_645_C_25:measured_power,house_meter_645_C_26:measured_power,house_meter_645_C_27:measured_power,house_meter_645_C_28:measured_power,house_meter_645_C_29:measured_power,house_meter_645_C_30:measured_power,house_meter_645_C_31:measured_power,house_meter_645_C_32:measured_power,house_meter_645_C_33:measured_power,house_meter_645_C_34:measured_power,house_meter_645_C_35:measured_power,house_meter_645_C_36:measured_power,house_meter_645_C_37:measured_power,house_meter_645_C_38:measured_power,house_meter_645_C_39:measured_power,house_meter_645_C_40:measured_power;
	file 1Meter_645_C_power.csv;
}

//node 633 A
//real power
object multi_recorder {
    interval 900;
    property meter_633_A:measured_power.real,xfmr_meter_633_A_1:measured_power.real,xfmr_meter_633_A_2:measured_power.real,xfmr_meter_633_A_3:measured_power.real,xfmr_meter_633_A_4:measured_power.real,xfmr_meter_633_A_5:measured_power.real,house_meter_633_A_1:measured_power.real,house_meter_633_A_2:measured_power.real,house_meter_633_A_3:measured_power.real,house_meter_633_A_4:measured_power.real,house_meter_633_A_5:measured_power.real,house_meter_633_A_6:measured_power.real,house_meter_633_A_7:measured_power.real,house_meter_633_A_8:measured_power.real,house_meter_633_A_9:measured_power.real,house_meter_633_A_10:measured_power.real,house_meter_633_A_11:measured_power.real,house_meter_633_A_12:measured_power.real,house_meter_633_A_13:measured_power.real,house_meter_633_A_14:measured_power.real,house_meter_633_A_15:measured_power.real,house_meter_633_A_16:measured_power.real,house_meter_633_A_17:measured_power.real,house_meter_633_A_18:measured_power.real,house_meter_633_A_19:measured_power.real;
    file Meter_633_A_Power.real.csv;
}

object multi_recorder{
	interval 900;
	property house_meter_633_A_20:measured_power.real,house_meter_633_A_21:measured_power.real,house_meter_633_A_22:measured_power.real,house_meter_633_A_23:measured_power.real,house_meter_633_A_24:measured_power.real,house_meter_633_A_25:measured_power.real,house_meter_633_A_26:measured_power.real,house_meter_633_A_27:measured_power.real,house_meter_633_A_28:measured_power.real,house_meter_633_A_29:measured_power.real,house_meter_633_A_30:measured_power.real,house_meter_633_A_31:measured_power.real,house_meter_633_A_32:measured_power.real,house_meter_633_A_33:measured_power.real,house_meter_633_A_34:measured_power.real,house_meter_633_A_35:measured_power.real,house_meter_633_A_36:measured_power.real,house_meter_633_A_37:measured_power.real,house_meter_633_A_38:measured_power.real,house_meter_633_A_39:measured_power.real,house_meter_633_A_40:measured_power.real;
	file 1Meter_633_A_power.real.csv;
}

// VA power
object multi_recorder {
    interval 900;
    property meter_633_A:measured_power,xfmr_meter_633_A_1:measured_power,xfmr_meter_633_A_2:measured_power,xfmr_meter_633_A_3:measured_power,xfmr_meter_633_A_4:measured_power,xfmr_meter_633_A_5:measured_power,house_meter_633_A_1:measured_power,house_meter_633_A_2:measured_power,house_meter_633_A_3:measured_power,house_meter_633_A_4:measured_power,house_meter_633_A_5:measured_power,house_meter_633_A_6:measured_power,house_meter_633_A_7:measured_power,house_meter_633_A_8:measured_power,house_meter_633_A_9:measured_power,house_meter_633_A_10:measured_power,house_meter_633_A_11:measured_power,house_meter_633_A_12:measured_power,house_meter_633_A_13:measured_power,house_meter_633_A_14:measured_power,house_meter_633_A_15:measured_power,house_meter_633_A_16:measured_power,house_meter_633_A_17:measured_power,house_meter_633_A_18:measured_power,house_meter_633_A_19:measured_power,house_meter_633_A_20:measured_power,house_meter_633_A_21:measured_power,house_meter_633_A_22:measured_power,house_meter_633_A_23:measured_power;
    file Meter_633_A_Power.csv;
}

object multi_recorder{
	interval 900;
	property house_meter_633_A_24:measured_power,house_meter_633_A_25:measured_power,house_meter_633_A_26:measured_power,house_meter_633_A_27:measured_power,house_meter_633_A_28:measured_power,house_meter_633_A_29:measured_power,house_meter_633_A_30:measured_power,house_meter_633_A_31:measured_power,house_meter_633_A_32:measured_power,house_meter_633_A_33:measured_power,house_meter_633_A_34:measured_power,house_meter_633_A_35:measured_power,house_meter_633_A_36:measured_power,house_meter_633_A_37:measured_power,house_meter_633_A_38:measured_power,house_meter_633_A_39:measured_power,house_meter_633_A_40:measured_power;
	file 1Meter_633_A_power.csv;
}

//node 633 B
//real power
object multi_recorder {
    interval 900;
    property meter_633_B:measured_power.real,xfmr_meter_633_B_1:measured_power.real,xfmr_meter_633_B_2:measured_power.real,xfmr_meter_633_B_3:measured_power.real,xfmr_meter_633_B_4:measured_power.real,xfmr_meter_633_B_5:measured_power.real,house_meter_633_B_1:measured_power.real,house_meter_633_B_2:measured_power.real,house_meter_633_B_3:measured_power.real,house_meter_633_B_4:measured_power.real,house_meter_633_B_5:measured_power.real,house_meter_633_B_6:measured_power.real,house_meter_633_B_7:measured_power.real,house_meter_633_B_8:measured_power.real,house_meter_633_B_9:measured_power.real,house_meter_633_B_10:measured_power.real,house_meter_633_B_11:measured_power.real,house_meter_633_B_12:measured_power.real,house_meter_633_B_13:measured_power.real,house_meter_633_B_14:measured_power.real,house_meter_633_B_15:measured_power.real,house_meter_633_B_16:measured_power.real,house_meter_633_B_17:measured_power.real,house_meter_633_B_18:measured_power.real,house_meter_633_B_19:measured_power.real;
    file Meter_633_B_Power.real.csv;
}

object multi_recorder{
	interval 900;
	property house_meter_633_B_20:measured_power.real,house_meter_633_B_21:measured_power.real,house_meter_633_B_22:measured_power.real,house_meter_633_B_23:measured_power.real,house_meter_633_B_24:measured_power.real,house_meter_633_B_25:measured_power.real,house_meter_633_B_26:measured_power.real,house_meter_633_B_27:measured_power.real,house_meter_633_B_28:measured_power.real,house_meter_633_B_29:measured_power.real,house_meter_633_B_30:measured_power.real,house_meter_633_B_31:measured_power.real,house_meter_633_B_32:measured_power.real,house_meter_633_B_33:measured_power.real,house_meter_633_B_34:measured_power.real,house_meter_633_B_35:measured_power.real,house_meter_633_B_36:measured_power.real,house_meter_633_B_37:measured_power.real,house_meter_633_B_38:measured_power.real,house_meter_633_B_39:measured_power.real,house_meter_633_B_40:measured_power.real;
	file 1Meter_633_B_power.real.csv;
}

// VA power
object multi_recorder {
    interval 900;
    property meter_633_B:measured_power,xfmr_meter_633_B_1:measured_power,xfmr_meter_633_B_2:measured_power,xfmr_meter_633_B_3:measured_power,xfmr_meter_633_B_4:measured_power,xfmr_meter_633_B_5:measured_power,house_meter_633_B_1:measured_power,house_meter_633_B_2:measured_power,house_meter_633_B_3:measured_power,house_meter_633_B_4:measured_power,house_meter_633_B_5:measured_power,house_meter_633_B_6:measured_power,house_meter_633_B_7:measured_power,house_meter_633_B_8:measured_power,house_meter_633_B_9:measured_power,house_meter_633_B_10:measured_power,house_meter_633_B_11:measured_power,house_meter_633_B_12:measured_power,house_meter_633_B_13:measured_power,house_meter_633_B_14:measured_power,house_meter_633_B_15:measured_power,house_meter_633_B_16:measured_power,house_meter_633_B_17:measured_power,house_meter_633_B_18:measured_power,house_meter_633_B_19:measured_power,house_meter_633_B_20:measured_power,house_meter_633_B_21:measured_power,house_meter_633_B_22:measured_power,house_meter_633_B_23:measured_power;
    file Meter_633_B_Power.csv;
}

object multi_recorder{
	interval 900;
	property house_meter_633_B_24:measured_power,house_meter_633_B_25:measured_power,house_meter_633_B_26:measured_power,house_meter_633_B_27:measured_power,house_meter_633_B_28:measured_power,house_meter_633_B_29:measured_power,house_meter_633_B_30:measured_power,house_meter_633_B_31:measured_power,house_meter_633_B_32:measured_power,house_meter_633_B_33:measured_power,house_meter_633_B_34:measured_power,house_meter_633_B_35:measured_power,house_meter_633_B_36:measured_power,house_meter_633_B_37:measured_power,house_meter_633_B_38:measured_power,house_meter_633_B_39:measured_power,house_meter_633_B_40:measured_power;
	file 1Meter_633_B_power.csv;
}

//node 633 C
//real power
object multi_recorder {
    interval 900;
    property meter_633_C:measured_power.real,xfmr_meter_633_C_1:measured_power.real,xfmr_meter_633_C_2:measured_power.real,xfmr_meter_633_C_3:measured_power.real,xfmr_meter_633_C_4:measured_power.real,xfmr_meter_633_C_5:measured_power.real,house_meter_633_C_1:measured_power.real,house_meter_633_C_2:measured_power.real,house_meter_633_C_3:measured_power.real,house_meter_633_C_4:measured_power.real,house_meter_633_C_5:measured_power.real,house_meter_633_C_6:measured_power.real,house_meter_633_C_7:measured_power.real,house_meter_633_C_8:measured_power.real,house_meter_633_C_9:measured_power.real,house_meter_633_C_10:measured_power.real,house_meter_633_C_11:measured_power.real,house_meter_633_C_12:measured_power.real,house_meter_633_C_13:measured_power.real,house_meter_633_C_14:measured_power.real,house_meter_633_C_15:measured_power.real,house_meter_633_C_16:measured_power.real,house_meter_633_C_17:measured_power.real,house_meter_633_C_18:measured_power.real,house_meter_633_C_19:measured_power.real;
    file Meter_633_C_Power.real.csv;
}

object multi_recorder{
	interval 900;
	property house_meter_633_C_20:measured_power.real,house_meter_633_C_21:measured_power.real,house_meter_633_C_22:measured_power.real,house_meter_633_C_23:measured_power.real,house_meter_633_C_24:measured_power.real,house_meter_633_C_25:measured_power.real,house_meter_633_C_26:measured_power.real,house_meter_633_C_27:measured_power.real,house_meter_633_C_28:measured_power.real,house_meter_633_C_29:measured_power.real,house_meter_633_C_30:measured_power.real,house_meter_633_C_31:measured_power.real,house_meter_633_C_32:measured_power.real,house_meter_633_C_33:measured_power.real,house_meter_633_C_34:measured_power.real,house_meter_633_C_35:measured_power.real,house_meter_633_C_36:measured_power.real,house_meter_633_C_37:measured_power.real,house_meter_633_C_38:measured_power.real,house_meter_633_C_39:measured_power.real,house_meter_633_C_40:measured_power.real;
	file 1Meter_633_C_power.real.csv;
}

// VA power
object multi_recorder {
    interval 900;
    property meter_633_C:measured_power,xfmr_meter_633_C_1:measured_power,xfmr_meter_633_C_2:measured_power,xfmr_meter_633_C_3:measured_power,xfmr_meter_633_C_4:measured_power,xfmr_meter_633_C_5:measured_power,house_meter_633_C_1:measured_power,house_meter_633_C_2:measured_power,house_meter_633_C_3:measured_power,house_meter_633_C_4:measured_power,house_meter_633_C_5:measured_power,house_meter_633_C_6:measured_power,house_meter_633_C_7:measured_power,house_meter_633_C_8:measured_power,house_meter_633_C_9:measured_power,house_meter_633_C_10:measured_power,house_meter_633_C_11:measured_power,house_meter_633_C_12:measured_power,house_meter_633_C_13:measured_power,house_meter_633_C_14:measured_power,house_meter_633_C_15:measured_power,house_meter_633_C_16:measured_power,house_meter_633_C_17:measured_power,house_meter_633_C_18:measured_power,house_meter_633_C_19:measured_power,house_meter_633_C_20:measured_power,house_meter_633_C_21:measured_power,house_meter_633_C_22:measured_power,house_meter_633_C_23:measured_power;
    file Meter_633_C_Power.csv;
}

object multi_recorder{
	interval 900;
	property house_meter_633_C_24:measured_power,house_meter_633_C_25:measured_power,house_meter_633_C_26:measured_power,house_meter_633_C_27:measured_power,house_meter_633_C_28:measured_power,house_meter_633_C_29:measured_power,house_meter_633_C_30:measured_power,house_meter_633_C_31:measured_power,house_meter_633_C_32:measured_power,house_meter_633_C_33:measured_power,house_meter_633_C_34:measured_power,house_meter_633_C_35:measured_power,house_meter_633_C_36:measured_power,house_meter_633_C_37:measured_power,house_meter_633_C_38:measured_power,house_meter_633_C_39:measured_power,house_meter_633_C_40:measured_power;
	file 1Meter_633_C_power.csv;
}

//node 632 C
//real power
object multi_recorder {
    interval 900;
    property meter_632_A:measured_power.real,xfmr_meter_632_A_1:measured_power.real,xfmr_meter_632_A_2:measured_power.real,xfmr_meter_632_A_3:measured_power.real,xfmr_meter_632_A_4:measured_power.real,xfmr_meter_632_A_5:measured_power.real,house_meter_632_A_1:measured_power.real,house_meter_632_A_2:measured_power.real,house_meter_632_A_3:measured_power.real,house_meter_632_A_4:measured_power.real,house_meter_632_A_5:measured_power.real,house_meter_632_A_6:measured_power.real,house_meter_632_A_7:measured_power.real,house_meter_632_A_8:measured_power.real,house_meter_632_A_9:measured_power.real,house_meter_632_A_10:measured_power.real,house_meter_632_A_11:measured_power.real,house_meter_632_A_12:measured_power.real,house_meter_632_A_13:measured_power.real,house_meter_632_A_14:measured_power.real,house_meter_632_A_15:measured_power.real,house_meter_632_A_16:measured_power.real,house_meter_632_A_17:measured_power.real,house_meter_632_A_18:measured_power.real,house_meter_632_A_19:measured_power.real;
    file Meter_632_A_Power.real.csv;
}

object multi_recorder{
	interval 900;
	property house_meter_632_A_20:measured_power.real,house_meter_632_A_21:measured_power.real,house_meter_632_A_22:measured_power.real,house_meter_632_A_23:measured_power.real,house_meter_632_A_24:measured_power.real,house_meter_632_A_25:measured_power.real,house_meter_632_A_26:measured_power.real,house_meter_632_A_27:measured_power.real,house_meter_632_A_28:measured_power.real,house_meter_632_A_29:measured_power.real,house_meter_632_A_30:measured_power.real,house_meter_632_A_31:measured_power.real,house_meter_632_A_32:measured_power.real,house_meter_632_A_33:measured_power.real,house_meter_632_A_34:measured_power.real,house_meter_632_A_35:measured_power.real,house_meter_632_A_36:measured_power.real,house_meter_632_A_37:measured_power.real,house_meter_632_A_38:measured_power.real,house_meter_632_A_39:measured_power.real,house_meter_632_A_40:measured_power.real;
	file 1Meter_632_A_power.real.csv;
}

// VA power
object multi_recorder {
    interval 900;
    property meter_632_A:measured_power,xfmr_meter_632_A_1:measured_power,xfmr_meter_632_A_2:measured_power,xfmr_meter_632_A_3:measured_power,xfmr_meter_632_A_4:measured_power,xfmr_meter_632_A_5:measured_power,house_meter_632_A_1:measured_power,house_meter_632_A_2:measured_power,house_meter_632_A_3:measured_power,house_meter_632_A_4:measured_power,house_meter_632_A_5:measured_power,house_meter_632_A_6:measured_power,house_meter_632_A_7:measured_power,house_meter_632_A_8:measured_power,house_meter_632_A_9:measured_power,house_meter_632_A_10:measured_power,house_meter_632_A_11:measured_power,house_meter_632_A_12:measured_power,house_meter_632_A_13:measured_power,house_meter_632_A_14:measured_power,house_meter_632_A_15:measured_power,house_meter_632_A_16:measured_power,house_meter_632_A_17:measured_power,house_meter_632_A_18:measured_power,house_meter_632_A_19:measured_power,house_meter_632_A_20:measured_power,house_meter_632_A_21:measured_power,house_meter_632_A_22:measured_power,house_meter_632_A_23:measured_power;
    file Meter_632_A_Power.csv;
}

object multi_recorder{
	interval 900;
	property house_meter_632_A_24:measured_power,house_meter_632_A_25:measured_power,house_meter_632_A_26:measured_power,house_meter_632_A_27:measured_power,house_meter_632_A_28:measured_power,house_meter_632_A_29:measured_power,house_meter_632_A_30:measured_power,house_meter_632_A_31:measured_power,house_meter_632_A_32:measured_power,house_meter_632_A_33:measured_power,house_meter_632_A_34:measured_power,house_meter_632_A_35:measured_power,house_meter_632_A_36:measured_power,house_meter_632_A_37:measured_power,house_meter_632_A_38:measured_power,house_meter_632_A_39:measured_power,house_meter_632_A_40:measured_power;
	file 1Meter_632_A_power.csv;
}

//node 632 B
//real power
object multi_recorder {
    interval 900;
    property meter_632_B:measured_power.real,xfmr_meter_632_B_1:measured_power.real,xfmr_meter_632_B_2:measured_power.real,xfmr_meter_632_B_3:measured_power.real,xfmr_meter_632_B_4:measured_power.real,xfmr_meter_632_B_5:measured_power.real,house_meter_632_B_1:measured_power.real,house_meter_632_B_2:measured_power.real,house_meter_632_B_3:measured_power.real,house_meter_632_B_4:measured_power.real,house_meter_632_B_5:measured_power.real,house_meter_632_B_6:measured_power.real,house_meter_632_B_7:measured_power.real,house_meter_632_B_8:measured_power.real,house_meter_632_B_9:measured_power.real,house_meter_632_B_10:measured_power.real,house_meter_632_B_11:measured_power.real,house_meter_632_B_12:measured_power.real,house_meter_632_B_13:measured_power.real,house_meter_632_B_14:measured_power.real,house_meter_632_B_15:measured_power.real,house_meter_632_B_16:measured_power.real,house_meter_632_B_17:measured_power.real,house_meter_632_B_18:measured_power.real,house_meter_632_B_19:measured_power.real;
    file Meter_632_B_Power.real.csv;
}

object multi_recorder{
	interval 900;
	property house_meter_632_B_20:measured_power.real,house_meter_632_B_21:measured_power.real,house_meter_632_B_22:measured_power.real,house_meter_632_B_23:measured_power.real,house_meter_632_B_24:measured_power.real,house_meter_632_B_25:measured_power.real,house_meter_632_B_26:measured_power.real,house_meter_632_B_27:measured_power.real,house_meter_632_B_28:measured_power.real,house_meter_632_B_29:measured_power.real,house_meter_632_B_30:measured_power.real,house_meter_632_B_31:measured_power.real,house_meter_632_B_32:measured_power.real,house_meter_632_B_33:measured_power.real,house_meter_632_B_34:measured_power.real,house_meter_632_B_35:measured_power.real,house_meter_632_B_36:measured_power.real,house_meter_632_B_37:measured_power.real,house_meter_632_B_38:measured_power.real,house_meter_632_B_39:measured_power.real,house_meter_632_B_40:measured_power.real;
	file 1Meter_632_B_power.real.csv;
}

// VA power
object multi_recorder {
    interval 900;
    property meter_632_B:measured_power,xfmr_meter_632_B_1:measured_power,xfmr_meter_632_B_2:measured_power,xfmr_meter_632_B_3:measured_power,xfmr_meter_632_B_4:measured_power,xfmr_meter_632_B_5:measured_power,house_meter_632_B_1:measured_power,house_meter_632_B_2:measured_power,house_meter_632_B_3:measured_power,house_meter_632_B_4:measured_power,house_meter_632_B_5:measured_power,house_meter_632_B_6:measured_power,house_meter_632_B_7:measured_power,house_meter_632_B_8:measured_power,house_meter_632_B_9:measured_power,house_meter_632_B_10:measured_power,house_meter_632_B_11:measured_power,house_meter_632_B_12:measured_power,house_meter_632_B_13:measured_power,house_meter_632_B_14:measured_power,house_meter_632_B_15:measured_power,house_meter_632_B_16:measured_power,house_meter_632_B_17:measured_power,house_meter_632_B_18:measured_power,house_meter_632_B_19:measured_power,house_meter_632_B_20:measured_power,house_meter_632_B_21:measured_power,house_meter_632_B_22:measured_power,house_meter_632_B_23:measured_power;
    file Meter_632_B_Power.csv;
}

object multi_recorder{
	interval 900;
...